LTspice 24.0.11 for Windows
Circuit: * C:\Users\Rian\OneDrive - UDESC Universidade do Estado de Santa Catarina\Ciência da Computação\Fase 2\ECC\Draft2.asc
Start Time: Sat Apr 13 09:19:48 2024
solver = Normal
Maximum thread count: 12
tnom = 27
temp = 27
method = modified trap
Direct Newton iteration for .op point succeeded.
Total elapsed time: 0.099 seconds.

